LTspice 24.0.12 for Windows
Circuit: * C:\Users\krisi\Desktop\UKTC\11\V.Nachev\Draft3.asc
Start Time: Wed Oct  2 19:56:43 2024
solver = Normal
Maximum thread count: 12
tnom = 27
temp = 27
method = modified trap
Direct Newton iteration for .op point succeeded.
Total elapsed time: 0.027 seconds.

