LTspice 24.0.12 for Windows
Circuit: * C:\Users\krisi\Desktop\UKTC\11\V.Nachev\Draft2.asc
Start Time: Wed Sep 25 11:37:38 2024
solver = Normal
Maximum thread count: 12
tnom = 27
temp = 27
method = modified trap
Direct Newton iteration for .op point succeeded.
Total elapsed time: 0.027 seconds.

